Info: SIMULATION PARAMETERS:
Info: TIMESTEP               2
Info: NUMBER OF STEPS        0
Info: STEPS PER CYCLE        10
Info: PERIODIC CELL BASIS 1  95.1519 0 0
Info: PERIODIC CELL BASIS 2  0 95.1519 0
Info: PERIODIC CELL BASIS 3  0 0 122.003
Info: PERIODIC CELL CENTER   0 0 0
Info: WRAPPING WATERS AROUND PERIODIC BOUNDARIES ON OUTPUT.
Info: WRAPPING ALL CLUSTERS AROUND PERIODIC BOUNDARIES ON OUTPUT.
Info: FIRST LDB TIMESTEP     50
Info: LAST LDB TIMESTEP     -1
Info: HOM BACKGROUND SCALING 1
Info: PME BACKGROUND SCALING 1
Info: MIN ATOMS PER PATCH    40
Info: INITIAL TEMPERATURE    300
Info: CENTER OF MASS MOVING INITIALLY? NO
Info: DIELECTRIC             1
Info: EXCLUDE                SCALED ONE-FOUR
Info: 1-4 ELECTROSTATICS SCALED BY 1
Info: MODIFIED 1-4 VDW PARAMETERS WILL BE USED
Info: DCD FILENAME           cco_and_water_heated.dcd
Info: DCD FREQUENCY          5000
Info: DCD FIRST STEP         5000
Info: DCD FILE WILL CONTAIN UNIT CELL DATA
Info: XST FILENAME           cco_and_water_heated.xst
Info: XST FREQUENCY          25000
Info: NO VELOCITY DCD OUTPUT
Info: NO FORCE DCD OUTPUT
Info: OUTPUT FILENAME        cco_and_water_heated
Info: BINARY OUTPUT FILES WILL BE USED
Info: RESTART FILENAME       cco_and_water_heated.restart
Info: RESTART FREQUENCY      50000
Info: BINARY RESTART FILES WILL BE USED
Info: SWITCHING ACTIVE
Info: SWITCHING ON           10
Info: SWITCHING OFF          12
Info: PAIRLIST DISTANCE      13.5
Info: PAIRLIST SHRINK RATE   0.01
Info: PAIRLIST GROW RATE     0.01
Info: PAIRLIST TRIGGER       0.3
Info: PAIRLISTS PER CYCLE    2
Info: PAIRLISTS ENABLED
Info: MARGIN                 0.96
Info: HYDROGEN GROUP CUTOFF  2.5
Info: PATCH DIMENSION        16.96
Info: ENERGY OUTPUT STEPS    25000
Info: CROSSTERM ENERGY INCLUDED IN DIHEDRAL
Info: TIMING OUTPUT STEPS    250000
Info: PRESSURE OUTPUT STEPS  25000
Info: HARMONIC CONSTRAINTS ACTIVE
Info: HARMONIC CONS EXP      2
Info: LANGEVIN DYNAMICS ACTIVE
Info: LANGEVIN TEMPERATURE   300
Info: LANGEVIN USING BBK INTEGRATOR
Info: LANGEVIN DAMPING COEFFICIENT IS 1 INVERSE PS
Info: LANGEVIN DYNAMICS NOT APPLIED TO HYDROGENS
Info: LANGEVIN PISTON PRESSURE CONTROL ACTIVE
Info:        TARGET PRESSURE IS 1.01325 BAR
Info:     OSCILLATION PERIOD IS 200 FS
Info:             DECAY TIME IS 50 FS
Info:     PISTON TEMPERATURE IS 300 K
Info:       PRESSURE CONTROL IS GROUP-BASED
Info:    INITIAL STRAIN RATE IS -1.15998e-05 -1.15998e-05 3.28333e-05
Info:       CELL FLUCTUATION IS ANISOTROPIC
Info:     SHAPE OF CELL IS CONSTRAINED IN X-Y PLANE
Info: PARTICLE MESH EWALD (PME) ACTIVE
Info: PME TOLERANCE               1e-06
Info: PME EWALD COEFFICIENT       0.257952
Info: PME INTERPOLATION ORDER     4
Info: PME GRID DIMENSIONS         96 96 128
Info: PME MAXIMUM GRID SPACING    1
Info: FULL ELECTROSTATIC EVALUATION FREQUENCY      2
Info: USING VERLET I (r-RESPA) MTS SCHEME.
Info: C1 SPLITTING OF LONG RANGE ELECTROSTATICS
Info: PLACING ATOMS IN PATCHES BY HYDROGEN GROUPS
Info: RIGID BONDS TO HYDROGEN : ALL
Info:         ERROR TOLERANCE : 1e-05
Info:          MAX ITERATIONS : 100
Info: RIGID WATER USING SETTLE ALGORITHM
Info: RANDOM NUMBER SEED     1634034443
Info: USE HYDROGEN BONDS?    NO
Info: COORDINATE PDB         cco_and_water.pdb
Info: STRUCTURE FILE         cco_and_water.psf.xplor
Info: PARAMETER file: CHARMM format!
Info: PARAMETERS             par_all22_prot_plus_heme_and_Cu.inp
Info: PARAMETERS             par_all36_lipid.prm
Info: USING ARITHMETIC MEAN TO COMBINE L-J SIGMA PARAMETERS
Info: SUMMARY OF PARAMETERS:
Info: 205 BONDS
Info: 523 ANGLES
Info: 665 DIHEDRAL
Info: 56 IMPROPER
Info: 6 CROSSTERM
Info: 124 VDW
Info: 0 VDW_PAIRS
Info: 0 NBTHOLE_PAIRS
Info: STRUCTURE SUMMARY:
Info: 115578 ATOMS
Info: 89751 BONDS
Info: 97437 ANGLES
Info: 101277 DIHEDRALS
Info: 2467 IMPROPERS
Info: 787 CROSSTERMS
Info: 0 EXCLUSIONS
Info: 16188 CONSTRAINTS
Info: 99384 RIGID BONDS
Info: 247350 DEGREES OF FREEDOM
Info: 42076 HYDROGEN GROUPS
Info: 4 ATOMS IN LARGEST HYDROGEN GROUP
Info: 42076 MIGRATION GROUPS
Info: 4 ATOMS IN LARGEST MIGRATION GROUP
Info: TOTAL MASS = 700013 amu
Info: TOTAL CHARGE = -1.99998 e
Info: MASS DENSITY = 1.05235 g/cm^3
Info: ATOM DENSITY = 0.104633 atoms/A^3
Info: ADDED 287773 IMPLICIT EXCLUSIONS
Info: NONBONDED TABLE R-SQUARED SPACING: 0.0625
Info: NONBONDED TABLE SIZE: 769 POINTS
Info: REMOVING COM VELOCITY -0.0126942 -0.0126294 -0.0135802
Info: Updated CUDA force table with 4096 elements.
Info: Updated CUDA LJ table with 124 x 124 elements.
Info: Found 554 unique exclusion lists needing 69268 bytes
TCL: Minimizing for 500 steps
ETITLE: TS BOND ANGLE DIHED IMPRP ELECT VDW BOUNDARY MISC KINETIC TOTAL TEMP POTENTIAL TOTAL3 TEMPAVG PRESSURE GPRESSURE VOLUME PRESSAVG GPRESSAVG
ENERGY: 0 5209.0696 17344.6508 12761.9201 176.1664 -319294.8427 13910.4987 0.0005 0.0000 0.0000 -269892.5365 0.0000 -269892.5365 -269892.5365 0.0000 -57.7305 -31143.9255 1104601.0186 -57.7305 -31143.9255
ENERGY: 100 1078.3968 5648.7033 11178.0473 99.4707 -355418.1342 7035.5886 128.9308 0.0000 0.0000 -330248.9967 0.0000 -330248.9967 -330248.9967 0.0000 -30.4860 -17918.6697 1104601.0186 -30.4860 -17918.6697
ENERGY: 200 1046.9795 5683.9336 10808.2267 102.2288 -367716.9672 11411.6928 207.6824 0.0000 0.0000 -338456.2234 0.0000 -338456.2234 -338456.2234 0.0000 -71.7365 -18796.7095 1104601.0186 -71.7365 -18796.7095
ENERGY: 300 1039.5374 5553.2338 10604.6719 100.2072 -375810.4233 15264.9203 300.3252 0.0000 0.0000 -342947.5276 0.0000 -342947.5276 -342947.5276 0.0000 -118.1858 -19198.1573 1104601.0186 -118.1858 -19198.1573
ENERGY: 400 1003.4898 5444.3995 10454.8332 99.6672 -382519.4741 18887.5864 493.7551 0.0000 0.0000 -346135.7429 0.0000 -346135.7429 -346135.7429 0.0000 -182.5874 -19684.9003 1104601.0186 -182.5874 -19684.9003
ENERGY: 500 989.8025 5381.5765 10429.6304 94.8799 -384743.2842 19513.1428 497.6215 0.0000 0.0000 -347836.6305 0.0000 -347836.6305 -347836.6305 0.0000 -184.1503 -19783.1901 1104601.0186 -184.1503 -19783.1901
TCL: Setting parameter constraintScaling to 0.70
TCL: Running for 25000 steps
ETITLE: TS BOND ANGLE DIHED IMPRP ELECT VDW BOUNDARY MISC KINETIC TOTAL TEMP POTENTIAL TOTAL3 TEMPAVG PRESSURE GPRESSURE VOLUME PRESSAVG GPRESSAVG
ENERGY: 25000 5296.1351 22172.6248 13334.8414 517.2328 -316350.1203 12586.9656 1669.0436 0.0000 73222.7683 -187550.5087 297.9371 -260773.2770 -187117.3606 290.6278 81.0630 100.3788 1113623.2448 0.0398 0.0362
TCL: Setting parameter constraintScaling to 0.50
TCL: Running for 25000 steps
ETITLE: TS BOND ANGLE DIHED IMPRP ELECT VDW BOUNDARY MISC KINETIC TOTAL TEMP POTENTIAL TOTAL3 TEMPAVG PRESSURE GPRESSURE VOLUME PRESSAVG GPRESSAVG
ENERGY: 50000 5279.7470 21856.6970 13319.9771 548.0515 -315974.6130 12816.5184 1576.4419 0.0000 73535.3838 -187041.7963 299.2091 -260577.1801 -186609.3174 299.3097 -67.3486 -37.9388 1113339.8539 2.3410 2.3484
